[TITLE]
;;Project Title/Notes

[OPTIONS]
;;Option             Value
FLOW_UNITS           CMS
INFILTRATION         HORTON
FLOW_ROUTING         DYNWAVE
LINK_OFFSETS         DEPTH
MIN_SLOPE            0
ALLOW_PONDING        YES
SKIP_STEADY_STATE    NO

START_DATE           10/14/2020
START_TIME           00:00:00
REPORT_START_DATE    10/14/2020
REPORT_START_TIME    00:00:00
END_DATE             10/17/2020
END_TIME             00:00:00
SWEEP_START          01/01
SWEEP_END            12/31
DRY_DAYS             0
REPORT_STEP          00:01:00
WET_STEP             00:01:00
DRY_STEP             00:01:00
ROUTING_STEP         0.5
RULE_STEP            00:00:00

INERTIAL_DAMPING     FULL
NORMAL_FLOW_LIMITED  BOTH
FORCE_MAIN_EQUATION  H-W
VARIABLE_STEP        0.75
LENGTHENING_STEP     0
MIN_SURFAREA         0.1
MAX_TRIALS           8
HEAD_TOLERANCE       0.0015
SYS_FLOW_TOL         5
LAT_FLOW_TOL         5
MINIMUM_STEP         0.5
THREADS              1

[EVAPORATION]
;;Data Source    Parameters
;;-------------- ----------------
CONSTANT         0.0
DRY_ONLY         NO

[RAINGAGES]
;;Name           Format    Interval SCF      Source    
;;-------------- --------- ------ ------ ----------
YN1              VOLUME    0:01     1.0      TIMESERIES real1day15      

[SUBCATCHMENTS]
;;Name           Rain Gage        Outlet           Area     %Imperv  Width    %Slope   CurbLen  SnowPack        
;;-------------- ---------------- ---------------- -------- -------- -------- -------- -------- ----------------
SP10             YN1              N8-21            0.831278545 81.41413388 300      5.27     0                        
SP1-1            YN1              N1-8             0.847899775 30.00865298 107      3.39     0                        
SP1-2            YN1              N1-17            1.241325598 35.83510484 66.11    2.66     0                        
SP1-3            YN1              N8-96            0.688761778 42.25052919 132      0.5      0                        
SP2              YN1              N2-1             1.194476117 95.51690561 75       4.64     0                        
SP3              YN1              N3-1             0.917579216 100      90       1.02     0                        
SP4              YN1              N4-1             2.040715435 98.79389441 135      1.62     0                        
SP5-1            YN1              N8-82            1.814101811 82.58445373 141      4.39     0                        
SP5-2            YN1              N8-67            2.073510458 88.00562908 165      3.48     0                        
SP6-1            YN1              N5-11            0.328994333 100      50       1.32     0                        
SP6-2            YN1              N5-11            0.191299587 100      70       1.14     0                        
SP6-3            YN1              N5-3             0.293274894 100      92       0.71     0                        
SP7-1            YN1              N6-9             0.249094707 88.47841658 71       2.15     0                        
SP7-2            YN1              N6-29            0.708240439 71.0223617 158      4.17     0                        
SP8              YN1              N7-1             0.871164546 91.0401913 110      3.1      0                        
SP9              YN1              N13-34           0.519311084 100      150      2.02     0                        
ST1              YN1              N14-1            1.024883751 85.73597607 105      7.29     0                        
ST10             YN1              N11-9            0.157689564 100      46       1.15     0                        
ST11             YN1              N11-5            0.11692945 100      30       1.18     0                        
ST12             YN1              N23-1            0.272454306 68.74933805 70       1.8      0                        
ST13-1           YN1              N25-1            0.145044079 100      42       1.8      0                        
ST13-2           YN1              N21-10           0.061431565 100      34       0.94     0                        
ST13-3           YN1              N22-1            0.10380023 100      45       2.61     0                        
ST14             YN1              N12-7            0.094038955 100      85       2.23     0                        
ST15-1           YN1              N27-15           0.568255123 100      88       1.98     0                        
ST15-2           YN1              N26-6            0.801942515 96.28404222 143      1.77     0                        
ST16             YN1              N31-1            0.222000891 100      110      72.62    0                        
ST17             YN1              N28-1            0.757172179 94.04896213 135      1.93     0                        
ST18             YN1              N29-1            0.592372885 100      115      2.08     0                        
ST19             YN1              N31-32-1         1.028955563 80.97912694 235      3.16     0                        
ST2              YN1              N15-1            0.709982465 100      145      7.99     0                        
ST20             YN1              N12-28           0.464399518 53.29380714 65       3.91     0                        
ST21             YN1              N30-5            0.161918616 34.69675839 70       3.27     0                        
ST22             YN1              N68-8            0.458945905 100      120      2.56     0                        
ST23-1           YN1              N31-48           1.261014379 92.55154197 101      2.15     0                        
ST23-2           YN1              N30-1            0.340510852 100      102      1.78     0                        
ST24             YN1              N31-32-1         0.085459872 100      60       1.17     0                        
ST25             YN1              N31-17-1         0.045637073 100      45       9.13     0                        
ST26-1           YN1              N34-1            1.577557949 91.32401866 67       7.88     0                        
ST26-2           YN1              N35-1            0.763473521 90.91646301 87       63.72    0                        
ST27             YN1              N33-1            1.155575833 75.33233257 80       1.57     0                        
ST28             YN1              N32-1            1.110532462 66.45680943 70       1.31     0                        
ST3              YN1              N16-1            0.721955169 100      45       5.1      0                        
ST4-1            YN1              N17-1            0.32795638 100      16       4.44     0                        
ST4-2            YN1              N18-1            0.364255115 87.90314819 20       2.91     0                        
ST4-3            YN1              N17-18           0.180402733 100      62       1.76     0                        
ST5-1            YN1              N20-33           0.299979702 86.28039279 85       1.75     0                        
ST5-2            YN1              N19-10           0.203977864 95.15315755 90       0.61     0                        
ST6              YN1              N21-24           0.255701153 100      47       1.57     0                        
ST7              YN1              N20-1            1.516048206 98.08540247 160      7.77     0                        
ST8-1            YN1              N24-1            0.17747964 100      46       1.34     0                        
ST8-2            YN1              N21-19           0.137412545 100      45       1.06     0                        
ST9              YN1              N19-10           0.251913257 100      90       1.22     0                        
SU1              YN1              N38-18           1.292757565 69.05502725 180      7.43     0                        
SU10             YN1              N41-1            0.404784878 100      85       8.23     0                        
SU11             YN1              N39-7            0.071818394 100      30       1.78     0                        
SU12             YN1              N39-7            0.144028457 69.09862007 25       6.54     0                        
SU13             YN1              N42-14           0.32153123 96.1279264 67       3.87     0                        
SU14-1           YN1              N43-14           0.826882378 65.80974579 73.5     1.78     0                        
SU14-2           YN1              N44-1            1.281382826 87.29874569 120      3.17     0                        
SU15             YN1              N36-29           0.790795381 78.61870852 95       5.72     0                        
SU16-1           YN1              N46-7            0.376347741 100      40       3.8      0                        
SU16-2           YN1              N46-15           1.129970842 75.2965624 158      2.15     0                        
SU17-1           YN1              N46-7            0.359540497 65.77422382 53.7     3.8      0                        
SU17-2           YN1              N46-15           0.975861366 96.47501226 85       1.18     0                        
SU17-3           YN1              N45-1            0.439778658 92.97893218 135      1.06     0                        
SU18-1           YN1              N48-12-1         0.90724765 100      110      2.32     0                        
SU18-2           YN1              N47-10           1.385025275 71.77460301 168      1.68     0                        
SU19-1           YN1              N54-4            0.46293075 71.01836078 78       4.47     0                        
SU19-2           YN1              N58-1            0.566003772 90.88329161 55       5.22     0                        
SU19-3           YN1              N56-1            0.775885088 93.54006103 87       7.56     0                        
SU19-4           YN1              N54-38           0.589072742 78.80448862 74       5.25     0                        
SU2              YN1              N38-31           0.512022507 86.70116173 82       1.74     0                        
SU20-1           YN1              N57-1            0.478822725 100      64       1.42     0                        
SU20-2           YN1              N55-1            0.564858151 100      61       2.15     0                        
SU20-3           YN1              N54-38           0.359689901 84.96311274 50       0.9      0                        
SU21             YN1              N52-11           0.404512004 72.85023981 76       1.64     0                        
SU22             YN1              N52-11           0.420055361 100      80       1.44     0                        
SU23             YN1              N48-4            0.071055156 100      37       9.26     0                        
SU24             YN1              N48-11           0.011188608 100      11       0.98     0                        
SU25             YN1              N49-18           0.077818335 100      76       2.65     0                        
SU26             YN1              N49-9-1          0.020075968 100      14       0.56     0                        
SU27             YN1              N50-10           0.111935092 100      79       2.44     0                        
SU28             YN1              N51-9            0.268934288 100      76       2.67     0                        
SU29             YN1              N50-10           0.23940593 100      73       1.71     0                        
SU3              YN1              N38-29           0.133713781 100      51       1.8      0                        
SU30             YN1              N49-1            0.088851896 100      34       1.02     0                        
SU31             YN1              N51-9            0.185921902 93.37417759 52       0.76     0                        
SU32             YN1              N59-31           0.976639367 89.98384671 192      2.7      0                        
SU33             YN1              N59-31           1.138993482 96.81936948 162      1.25     0                        
SU34-1           YN1              N60-4            0.382921338 100      100      4.47     0                        
SU34-2           YN1              N59-1            0.138391713 100      26       7.53     0                        
SU35             YN1              N59-21-1         0.387342406 100      67       1.85     0                        
SU36-1           YN1              N59-39           0.11217948 100      38       2.5      0                        
SU36-2           YN1              N62-1            0.343322567 100      90       1.64     0                        
SU37             YN1              N63-1            0.213739162 100      54       1.18     0                        
SU38-1           YN1              N60-1            0.510567114 100      106      2.05     0                        
SU38-2           YN1              N61-1            0.741877862 100      143      1.91     0                        
SU38-3           YN1              N59-12           0.105730858 100      61       2.33     0                        
SU39             YN1              N59-28           0.108015715 100      28       0.83     0                        
SU4              YN1              N40-1            0.314289473 100      80       9.95     0                        
SU40             YN1              N59-39           0.283157622 100      76       1.41     0                        
SU41-1           YN1              N64-30           0.35162631 95.03306892 97       1.48     0                        
SU41-2           YN1              N64-22           0.416726129 100      161      1.58     0                        
SU42             YN1              N65-32           0.239641532 100      84       1.29     0                        
SU43             YN1              N67-1            0.320246834 100      102      1.49     0                        
SU44             YN1              N66-6            0.09473094 100      37       1.39     0                        
SU45             YN1              N65-1            0.238786697 100      82       3.47     0                        
SU5              YN1              N38-11           0.432680384 100      81       2.61     0                        
SU6              YN1              N38-49           0.492190158 100      87       1.49     0                        
SU7              YN1              N38-43           0.640911794 73.70706204 71       1.95     0                        
SU8              YN1              N37-12           0.687469693 100      127      3.76     0                        
SU9-1            YN1              N36-12           1.035476398 93.39778943 90       1.88     0                        
SU9-2            YN1              N36-6            1.315296326 86.78615621 87       5.23     0                        

[SUBAREAS]
;;Subcatchment   N-Imperv   N-Perv     S-Imperv   S-Perv     PctZero    RouteTo    PctRouted 
;;-------------- ---------- ---------- ---------- ---------- ---------- ---------- ----------
SP10             0.01       0.1        0.05       0.05       25         OUTLET    
SP1-1            0.01       0.1        0.05       0.05       25         OUTLET    
SP1-2            0.01       0.1        0.05       0.05       25         OUTLET    
SP1-3            0.01       0.1        0.05       0.05       25         OUTLET    
SP2              0.01       0.1        0.05       0.05       25         OUTLET    
SP3              0.01       0.1        0.05       0.05       25         OUTLET    
SP4              0.01       0.1        0.05       0.05       25         OUTLET    
SP5-1            0.01       0.1        0.05       0.05       25         OUTLET    
SP5-2            0.01       0.1        0.05       0.05       25         OUTLET    
SP6-1            0.01       0.1        0.05       0.05       25         OUTLET    
SP6-2            0.01       0.1        0.05       0.05       25         OUTLET    
SP6-3            0.01       0.1        0.05       0.05       25         OUTLET    
SP7-1            0.01       0.1        0.05       0.05       25         OUTLET    
SP7-2            0.01       0.1        0.05       0.05       25         OUTLET    
SP8              0.01       0.1        0.05       0.05       25         OUTLET    
SP9              0.01       0.1        0.05       0.05       25         OUTLET    
ST1              0.01       0.1        0.05       0.05       25         OUTLET    
ST10             0.01       0.1        0.05       0.05       25         OUTLET    
ST11             0.01       0.1        0.05       0.05       25         OUTLET    
ST12             0.01       0.1        0.05       0.05       25         OUTLET    
ST13-1           0.01       0.1        0.05       0.05       25         OUTLET    
ST13-2           0.01       0.1        0.05       0.05       25         OUTLET    
ST13-3           0.01       0.1        0.05       0.05       25         OUTLET    
ST14             0.01       0.1        0.05       0.05       25         OUTLET    
ST15-1           0.01       0.1        0.05       0.05       25         OUTLET    
ST15-2           0.01       0.1        0.05       0.05       25         OUTLET    
ST16             0.01       0.1        0.05       0.05       25         OUTLET    
ST17             0.01       0.1        0.05       0.05       25         OUTLET    
ST18             0.01       0.1        0.05       0.05       25         OUTLET    
ST19             0.01       0.1        0.05       0.05       25         OUTLET    
ST2              0.01       0.1        0.05       0.05       25         OUTLET    
ST20             0.01       0.1        0.05       0.05       25         OUTLET    
ST21             0.01       0.1        0.05       0.05       25         OUTLET    
ST22             0.01       0.1        0.05       0.05       25         OUTLET    
ST23-1           0.01       0.1        0.05       0.05       25         OUTLET    
ST23-2           0.01       0.1        0.05       0.05       25         OUTLET    
ST24             0.01       0.1        0.05       0.05       25         OUTLET    
ST25             0.01       0.1        0.05       0.05       25         OUTLET    
ST26-1           0.01       0.1        0.05       0.05       25         OUTLET    
ST26-2           0.01       0.1        0.05       0.05       25         OUTLET    
ST27             0.01       0.1        0.05       0.05       25         OUTLET    
ST28             0.01       0.1        0.05       0.05       25         OUTLET    
ST3              0.01       0.1        0.05       0.05       25         OUTLET    
ST4-1            0.01       0.1        0.05       0.05       25         OUTLET    
ST4-2            0.01       0.1        0.05       0.05       25         OUTLET    
ST4-3            0.01       0.1        0.05       0.05       25         OUTLET    
ST5-1            0.01       0.1        0.05       0.05       25         OUTLET    
ST5-2            0.01       0.1        0.05       0.05       25         OUTLET    
ST6              0.01       0.1        0.05       0.05       25         OUTLET    
ST7              0.01       0.1        0.05       0.05       25         OUTLET    
ST8-1            0.01       0.1        0.05       0.05       25         OUTLET    
ST8-2            0.01       0.1        0.05       0.05       25         OUTLET    
ST9              0.01       0.1        0.05       0.05       25         OUTLET    
SU1              0.01       0.1        0.05       0.05       25         OUTLET    
SU10             0.01       0.1        0.05       0.05       25         OUTLET    
SU11             0.01       0.1        0.05       0.05       25         OUTLET    
SU12             0.01       0.1        0.05       0.05       25         OUTLET    
SU13             0.01       0.1        0.05       0.05       25         OUTLET    
SU14-1           0.01       0.1        0.05       0.05       25         OUTLET    
SU14-2           0.01       0.1        0.05       0.05       25         OUTLET    
SU15             0.01       0.1        0.05       0.05       25         OUTLET    
SU16-1           0.01       0.1        0.05       0.05       25         OUTLET    
SU16-2           0.01       0.1        0.05       0.05       25         OUTLET    
SU17-1           0.01       0.1        0.05       0.05       25         OUTLET    
SU17-2           0.01       0.1        0.05       0.05       25         OUTLET    
SU17-3           0.01       0.1        0.05       0.05       25         OUTLET    
SU18-1           0.01       0.1        0.05       0.05       25         OUTLET    
SU18-2           0.01       0.1        0.05       0.05       25         OUTLET    
SU19-1           0.01       0.1        0.05       0.05       25         OUTLET    
SU19-2           0.01       0.1        0.05       0.05       25         OUTLET    
SU19-3           0.01       0.1        0.05       0.05       25         OUTLET    
SU19-4           0.01       0.1        0.05       0.05       25         OUTLET    
SU2              0.01       0.1        0.05       0.05       25         OUTLET    
SU20-1           0.01       0.1        0.05       0.05       25         OUTLET    
SU20-2           0.01       0.1        0.05       0.05       25         OUTLET    
SU20-3           0.01       0.1        0.05       0.05       25         OUTLET    
SU21             0.01       0.1        0.05       0.05       25         OUTLET    
SU22             0.01       0.1        0.05       0.05       25         OUTLET    
SU23             0.01       0.1        0.05       0.05       25         OUTLET    
SU24             0.01       0.1        0.05       0.05       25         OUTLET    
SU25             0.01       0.1        0.05       0.05       25         OUTLET    
SU26             0.01       0.1        0.05       0.05       25         OUTLET    
SU27             0.01       0.1        0.05       0.05       25         OUTLET    
SU28             0.01       0.1        0.05       0.05       25         OUTLET    
SU29             0.01       0.1        0.05       0.05       25         OUTLET    
SU3              0.01       0.1        0.05       0.05       25         OUTLET    
SU30             0.01       0.1        0.05       0.05       25         OUTLET    
SU31             0.01       0.1        0.05       0.05       25         OUTLET    
SU32             0.01       0.1        0.05       0.05       25         OUTLET    
SU33             0.01       0.1        0.05       0.05       25         OUTLET    
SU34-1           0.01       0.1        0.05       0.05       25         OUTLET    
SU34-2           0.01       0.1        0.05       0.05       25         OUTLET    
SU35             0.01       0.1        0.05       0.05       25         OUTLET    
SU36-1           0.01       0.1        0.05       0.05       25         OUTLET    
SU36-2           0.01       0.1        0.05       0.05       25         OUTLET    
SU37             0.01       0.1        0.05       0.05       25         OUTLET    
SU38-1           0.01       0.1        0.05       0.05       25         OUTLET    
SU38-2           0.01       0.1        0.05       0.05       25         OUTLET    
SU38-3           0.01       0.1        0.05       0.05       25         OUTLET    
SU39             0.01       0.1        0.05       0.05       25         OUTLET    
SU4              0.01       0.1        0.05       0.05       25         OUTLET    
SU40             0.01       0.1        0.05       0.05       25         OUTLET    
SU41-1           0.01       0.1        0.05       0.05       25         OUTLET    
SU41-2           0.01       0.1        0.05       0.05       25         OUTLET    
SU42             0.01       0.1        0.05       0.05       25         OUTLET    
SU43             0.01       0.1        0.05       0.05       25         OUTLET    
SU44             0.01       0.1        0.05       0.05       25         OUTLET    
SU45             0.01       0.1        0.05       0.05       25         OUTLET    
SU5              0.01       0.1        0.05       0.05       25         OUTLET    
SU6              0.01       0.1        0.05       0.05       25         OUTLET    
SU7              0.01       0.1        0.05       0.05       25         OUTLET    
SU8              0.01       0.1        0.05       0.05       25         OUTLET    
SU9-1            0.01       0.1        0.05       0.05       25         OUTLET    
SU9-2            0.01       0.1        0.05       0.05       25         OUTLET    

[INFILTRATION]
;;Subcatchment   Param1     Param2     Param3     Param4     Param5    
;;-------------- ---------- ---------- ---------- ---------- ----------
SP10             3          0.5        4          7          0         
SP1-1            3.5        0.5        0.25       7          0         
SP1-2            3.5        0.5        0.25       7          0         
SP1-3            3.5        0.5        0.25       7          0         
SP2              3          0.5        4          7          0         
SP3              3          0.5        4          7          0         
SP4              3          0.5        4          7          0         
SP5-1            3.5        0.5        0.25       7          0         
SP5-2            3.5        0.5        0.25       7          0         
SP6-1            3.5        0.5        0.25       7          0         
SP6-2            3.5        0.5        0.25       7          0         
SP6-3            3.5        0.5        0.25       7          0         
SP7-1            3.5        0.5        0.25       7          0         
SP7-2            3.5        0.5        0.25       7          0         
SP8              3          0.5        4          7          0         
SP9              3          0.5        4          7          0         
ST1              3          0.5        4          7          0         
ST10             3.5        0.5        0.25       7          0         
ST11             3.5        0.5        0.25       7          0         
ST12             3.5        0.5        0.25       7          0         
ST13-1           3.5        0.5        0.25       7          0         
ST13-2           3.5        0.5        0.25       7          0         
ST13-3           3.5        0.5        0.25       7          0         
ST14             3          0.5        4          7          0         
ST15-1           3.5        0.5        0.25       7          0         
ST15-2           3.5        0.5        0.25       7          0         
ST16             3          0.5        4          7          0         
ST17             3          0.5        4          7          0         
ST18             3          0.5        4          7          0         
ST19             3          0.5        4          7          0         
ST2              3          0.5        4          7          0         
ST20             3          0.5        4          7          0         
ST21             3          0.5        4          7          0         
ST22             3          0.5        4          7          0         
ST23-1           3.5        0.5        0.25       7          0         
ST23-2           3.5        0.5        0.25       7          0         
ST24             3          0.5        4          7          0         
ST25             3          0.5        4          7          0         
ST26-1           3.5        0.5        0.25       7          0         
ST26-2           3.5        0.5        0.25       7          0         
ST27             3          0.5        4          7          0         
ST28             3          0.5        4          7          0         
ST3              3          0.5        4          7          0         
ST4-1            3.5        0.5        0.25       7          0         
ST4-2            3.5        0.5        0.25       7          0         
ST4-3            3.5        0.5        0.25       7          0         
ST5-1            3.5        0.5        0.25       7          0         
ST5-2            3.5        0.5        0.25       7          0         
ST6              3.5        0.5        0.25       7          0         
ST7              3          0.5        4          7          0         
ST8-1            3.5        0.5        0.25       7          0         
ST8-2            3.5        0.5        0.25       7          0         
ST9              3          0.5        4          7          0         
SU1              3.5        0.5        0.25       7          0         
SU10             3.5        0.5        0.25       7          0         
SU11             3.5        0.5        0.25       7          0         
SU12             3.5        0.5        0.25       7          0         
SU13             3.5        0.5        0.25       7          0         
SU14-1           3.5        0.5        0.25       7          0         
SU14-2           3.5        0.5        0.25       7          0         
SU15             3.5        0.5        0.25       7          0         
SU16-1           3.5        0.5        0.25       7          0         
SU16-2           3.5        0.5        0.25       7          0         
SU17-1           3.5        0.5        0.25       7          0         
SU17-2           3.5        0.5        0.25       7          0         
SU17-3           3.5        0.5        0.25       7          0         
SU18-1           3.5        0.5        0.25       7          0         
SU18-2           3.5        0.5        0.25       7          0         